%pal nprocs 1 END
%MaxCore 3000

!BP86 D3BJ DEF2-SVP TightSCF
!OPT

* xyz 0 1 
C         -1.89136        1.78589        0.24081
C         -0.45341        1.70721        0.77384
H         -1.96813        2.57000       -0.54198
H         -2.59476        2.03864        1.06279
H         -2.20472        0.81669       -0.20100
C         -0.33675        0.64105        1.87721
S          0.01945        3.31935        1.51508
C          0.87913        3.75772       -0.01249
C          1.45355        2.47144       -0.58751
N          0.48630        1.42872       -0.31021
C          0.48301        0.24988       -1.00101
O          1.29412        0.04012       -1.89066
C          2.79273        2.10661        0.02350
O          2.86897        1.91221        1.22899
N          3.89712        1.99426       -0.76805
C          5.21803        1.64479       -0.26329
C          6.19246        2.80528       -0.56712
C          7.60677        2.69678       -0.02223
C          8.06081        1.63698        0.79185
C          9.37984        1.61388        1.25616
C         10.26137        2.64241        0.92013
C          9.82513        3.69948        0.12058
C          8.50776        3.72779       -0.34574
C          5.65574        0.35687       -0.92024
O          5.78049        0.30718       -2.13682
O          5.88416       -0.73921       -0.14997
C          6.28927       -1.97688       -0.61108
H          1.66006        4.53780        0.11384
H          0.08974        4.14751       -0.69141
H          1.56363        2.63942       -1.68253
H          3.80032        2.16418       -1.78148
H          5.75633        3.73814       -0.14661
H          6.24993        2.92747       -1.67168
H          5.18376        1.49685        0.83807
H         -0.24443       -0.52180       -0.77407
H          7.41422        0.82699        1.08527
H         11.28136        2.62155        1.28160
H          9.71827        0.79684        1.88039
H          8.18810        4.55736       -0.96491
H         10.50772        4.49862       -0.13826
H          0.70406        0.59258        2.26121
H         -0.61930       -0.36448        1.50291
H         -1.01144        0.88899        2.72458
H          5.53144       -2.73591       -0.32763
H          7.25599       -2.24199       -0.13558
H          6.41987       -2.00169       -1.71404
*