%pal nprocs 1 END
%MaxCore 3000

!BP86 D3BJ DEF2-SVP TightSCF
!OPT

* xyz 0 1 
C          0.14660        1.27420        0.34370
C         -0.63690        0.18400        0.01750
C         -2.02660        0.27560       -0.09020
C         -2.62840        1.52060        0.14760
C         -1.84320        2.63620        0.49190
C         -0.44560        2.52390        0.59600
Cl         0.49600        3.93500        1.05340
N          0.14500       -0.96290       -0.15740
C          1.42920       -0.62140        0.05680
O          2.33590       -1.43730        0.00520
C          1.60210        0.85790        0.37630
O          2.11260        1.05430        1.67150
C          2.42850        1.63230       -0.68630
C          3.89390        1.25010       -0.73400
H          2.34410        2.70930       -0.46790
H          1.98840        1.47590       -1.69550
O          4.20510        0.11990       -1.07390
C          4.97950        2.20380       -0.41140
C          4.85780        3.52210       -0.00350
C          6.14290        3.98130        0.17380
C          6.97420        2.92580       -0.13230
O          6.25360        1.88260       -0.47600
H         -3.70320        1.62580        0.07410
H          3.95650        4.09720        0.15350
H          6.44060        4.97170        0.49090
H          8.05540        2.93820       -0.09880
H         -2.32500        3.58700        0.68110
H         -0.19540       -1.90840       -0.38620
H          2.96960        0.55780        1.73630
Cl        -3.00820       -1.11960       -0.50410
*