30
Coordinates from ORCA-job input E -1354.662800045707
  C       0.148300      1.267500      0.348600
  C      -0.642700      0.188400      0.009200
  C      -2.027700      0.289800     -0.104500
  C      -2.623100      1.535400      0.141700
  C      -1.832000      2.643000      0.500900
  C      -0.435200      2.519400      0.610600
  Cl      0.516200      3.917900      1.086200
  N       0.124900     -0.964800     -0.174200
  C       1.412400     -0.638800      0.047700
  O       2.311200     -1.462900     -0.010800
  C       1.599100      0.836800      0.381200
  O       2.108700      1.019200      1.678800
  C       2.432300      1.610600     -0.675800
  C       3.900000      1.236100     -0.709300
  H       2.341300      2.687900     -0.463200
  H       2.000100      1.447600     -1.687400
  O       4.220100      0.101600     -1.025800
  C       4.977300      2.204600     -0.401700
  C       4.843700      3.532700     -0.029900
  C       6.124100      4.005900      0.142800
  C       6.964900      2.948800     -0.129700
  O       6.254000      1.891300     -0.450100
  H      -3.697000      1.643900      0.062300
  H       3.937900      4.106300      0.105100
  H       6.412300      5.007000      0.434200
  H       8.045600      2.970500     -0.090300
  H      -2.307800      3.595400      0.697100
  H      -0.229500     -1.902400     -0.414200
  H       2.956000      0.506300      1.744700
  H      -2.629100     -0.569400     -0.371600
30
Coordinates from ORCA-job input E -1354.682753940565
  C       0.191025      1.250018      0.339224
  C      -0.662558      0.190772      0.017640
  C      -2.049396      0.356082     -0.094736
  C      -2.578389      1.638411      0.132335
  C      -1.737800      2.716037      0.468956
  C      -0.346761      2.523663      0.576413
  Cl      0.666741      3.881790      1.016801
  N       0.077236     -0.996747     -0.133296
  C       1.417375     -0.760235      0.081837
  O       2.280201     -1.629579      0.090446
  C       1.634707      0.749628      0.370868
  O       2.170097      0.922558      1.665666
  C       2.465175      1.512692     -0.704232
  C       3.951412      1.175578     -0.777475
  H       2.349119      2.587883     -0.472896
  H       2.024551      1.352948     -1.710141
  O       4.342143      0.072754     -1.155021
  C       4.933989      2.218453     -0.424047
  C       4.727949      3.525682      0.026737
  C       6.011638      4.081780      0.209461
  C       6.912954      3.083694     -0.137148
  O       6.253866      1.980995     -0.510725
  H      -3.660686      1.802188      0.053687
  H       3.775275      4.030090      0.209629
  H       6.253845      5.091656      0.554964
  H       8.005403      3.133706     -0.125449
  H      -2.168282      3.708431      0.651668
  H      -0.316789     -1.914436     -0.335245
  H       2.985490      0.378071      1.712424
  H      -2.703231     -0.488962     -0.345744
30
Coordinates from ORCA-job input E -1354.688677965439
  C       0.208663      1.290111      0.337210
  C      -0.642157      0.206467      0.028799
  C      -2.032873      0.352515     -0.081373
  C      -2.572069      1.633644      0.138315
  C      -1.750588      2.726978      0.461673
  C      -0.355480      2.550649      0.562380
  Cl      0.632752      3.926647      1.000568
  N       0.125700     -0.963729     -0.105343
  C       1.482199     -0.736695      0.113905
  O       2.355711     -1.586562      0.172145
  C       1.657337      0.800096      0.348973
  O       2.242104      0.992390      1.623726
  C       2.454569      1.517491     -0.771507
  C       3.935837      1.154845     -0.862788
  H       2.335708      2.597424     -0.570084
  H       1.995758      1.313344     -1.760586
  O       4.326103      0.048605     -1.236993
  C       4.877734      2.205810     -0.449127
  C       4.678709      3.490531      0.069787
  C       5.980399      4.039610      0.286999
  C       6.875750      3.055249     -0.111416
  O       6.216609      1.959386     -0.548340
  H      -3.661109      1.785200      0.063149
  H       3.719252      3.976839      0.282039
  H       6.232120      5.029699      0.687919
  H       7.972366      3.057092     -0.112327
  H      -2.189928      3.719968      0.642434
  H      -0.257386     -1.892782     -0.277533
  H       3.043142      0.430241      1.642007
  H      -2.680632     -0.505464     -0.322009
30
Coordinates from ORCA-job input E -1354.691060016738
  C       0.226380      1.309998      0.332512
  C      -0.621888      0.210007      0.049080
  C      -2.012592      0.344386     -0.055362
  C      -2.556694      1.628194      0.140607
  C      -1.744603      2.735286      0.431461
  C      -0.347059      2.567283      0.526687
  Cl      0.641470      3.962535      0.905895
  N       0.154367     -0.950176     -0.066519
  C       1.512336     -0.717317      0.152539
  O       2.384679     -1.555032      0.269974
  C       1.671201      0.833645      0.331644
  O       2.291328      1.064250      1.585956
  C       2.434675      1.522044     -0.829528
  C       3.917575      1.160634     -0.933889
  H       2.305874      2.605626     -0.656232
  H       1.959499      1.279674     -1.802518
  O       4.311420      0.088577     -1.385907
  C       4.839065      2.205804     -0.466010
  C       4.648330      3.441246      0.153826
  C       5.953977      3.984182      0.383981
  C       6.842402      3.045275     -0.112017
  O       6.185415      1.975291     -0.619448
  H      -3.646256      1.771129      0.067270
  H       3.688968      3.890903      0.431579
  H       6.210401      4.939323      0.856642
  H       7.937256      3.028537     -0.154236
  H      -2.184131      3.730514      0.588813
  H      -0.223419     -1.890254     -0.199526
  H       3.082237      0.484969      1.599561
  H      -2.655913     -0.520931     -0.274233
30
Coordinates from ORCA-job input E -1354.692890758894
  C       0.234166      1.347334      0.319849
  C      -0.591208      0.216081      0.079497
  C      -1.984546      0.313589     -0.007146
  C      -2.557632      1.589301      0.161835
  C      -1.772563      2.725147      0.406433
  C      -0.369049      2.593183      0.481649
  Cl      0.594238      4.025219      0.794554
  N       0.210951     -0.923932     -0.019842
  C       1.562126     -0.650963      0.186564
  O       2.455792     -1.456989      0.341622
  C       1.684200      0.910071      0.297204
  O       2.343885      1.205598      1.519254
  C       2.400814      1.559158     -0.917964
  C       3.882684      1.192715     -1.043809
  H       2.268169      2.648382     -0.784614
  H       1.901512      1.269234     -1.865015
  O       4.262232      0.138924     -1.540878
  C       4.807482      2.195865     -0.495033
  C       4.636481      3.372498      0.225716
  C       5.947775      3.876648      0.501168
  C       6.822558      2.974107     -0.070671
  O       6.155819      1.957220     -0.666974
  H      -3.650724      1.701604      0.101964
  H       3.680499      3.800590      0.543831
  H       6.215804      4.783819      1.053092
  H       7.915322      2.926384     -0.128313
  H      -2.230799      3.713746      0.541669
  H      -0.143428     -1.878735     -0.106956
  H       3.132705      0.621455      1.536175
  H      -2.608965     -0.571653     -0.192260
30
Coordinates from ORCA-job input E -1354.694494501389
  C       0.232677      1.386391      0.311033
  C      -0.560431      0.225069      0.106215
  C      -1.955747      0.280850      0.031693
  C      -2.565486      1.543078      0.175380
  C      -1.813230      2.707910      0.381485
  C      -0.405290      2.618089      0.442728
  Cl      0.523253      4.086364      0.697883
  N       0.273042     -0.893584      0.020683
  C       1.610851     -0.570323      0.218934
  O       2.532779     -1.339450      0.402501
  C       1.690990      0.992917      0.274734
  O       2.373635      1.352340      1.467330
  C       2.369503      1.602753     -0.985885
  C       3.847589      1.223666     -1.125464
  H       2.238185      2.697279     -0.891762
  H       1.850636      1.270360     -1.907121
  O       4.207268      0.201563     -1.694896
  C       4.788789      2.177185     -0.516654
  C       4.638483      3.293840      0.292836
  C       5.954143      3.757203      0.600377
  C       6.815213      2.894587     -0.045937
  O       6.134638      1.936081     -0.716155
  H      -3.661544      1.619910      0.124956
  H       3.686969      3.699764      0.650337
  H       6.234156      4.614548      1.221011
  H       7.905490      2.827925     -0.124876
  H      -2.296375      3.686484      0.496157
  H      -0.051775     -1.861357     -0.027650
  H       3.163879      0.769583      1.498657
  H      -2.555992     -0.625423     -0.125931
30
Coordinates from ORCA-job input E -1354.695687405438
  C       0.224147      1.426212      0.307825
  C      -0.527811      0.235605      0.130876
  C      -1.924437      0.243246      0.062043
  C      -2.577233      1.486554      0.180902
  C      -1.863451      2.681059      0.354951
  C      -0.453184      2.639854      0.409665
  Cl      0.433184      4.141898      0.611850
  N       0.344624     -0.858004      0.059499
  C       1.664419     -0.477603      0.253309
  O       2.619302     -1.203474      0.460126
  C       1.694441      1.083046      0.265498
  O       2.381550      1.504409      1.433401
  C       2.335759      1.658840     -1.035543
  C       3.808139      1.270538     -1.209128
  H       2.205149      2.756819     -0.975289
  H       1.792640      1.288356     -1.926586
  O       4.141566      0.283001     -1.852251
  C       4.776881      2.155917     -0.542397
  C       4.651798      3.213880      0.347224
  C       5.974811      3.624605      0.684003
  C       6.818212      2.793346     -0.026023
  O       6.115745      1.902999     -0.762903
  H      -3.675469      1.523438      0.134945
  H       3.707198      3.608783      0.733897
  H       6.271496      4.429766      1.364160
  H       7.906174      2.707902     -0.118073
  H      -2.377666      3.646059      0.448336
  H       0.054846     -1.837819      0.044553
  H       3.178456      0.931986      1.487370
  H      -2.494986     -0.685616     -0.073639
30
Coordinates from ORCA-job input E -1354.696513604623
  C       0.193964      1.456828      0.325109
  C      -0.508203      0.241379      0.134411
  C      -1.902964      0.198056      0.037242
  C      -2.603909      1.416063      0.141794
  C      -1.936297      2.636334      0.327420
  C      -0.527272      2.647503      0.407909
  Cl      0.305873      4.176333      0.620950
  N       0.408087     -0.822467      0.076883
  C       1.702460     -0.387452      0.304840
  O       2.686864     -1.070357      0.535299
  C       1.678715      1.168000      0.304076
  O       2.336569      1.627721      1.470085
  C       2.307003      1.726952     -1.016893
  C       3.767877      1.317686     -1.235813
  H       2.186098      2.827729     -0.977693
  H       1.740467      1.335783     -1.883213
  O       4.059422      0.377567     -1.967732
  C       4.785670      2.135642     -0.555584
  C       4.714324      3.172535      0.368649
  C       6.056110      3.520626      0.695927
  C       6.857425      2.681345     -0.056122
  O       6.107365      1.845104     -0.808729
  H      -3.702000      1.411409      0.075697
  H       3.789820      3.591355      0.777954
  H       6.392472      4.294443      1.394514
  H       7.940473      2.563267     -0.170090
  H      -2.487582      3.582334      0.409878
  H       0.155672     -1.812101      0.068460
  H       3.138943      1.067186      1.556790
  H      -2.437144     -0.751202     -0.109418
30
Coordinates from ORCA-job input E -1354.696931348323
  C       0.179982      1.493646      0.326699
  C      -0.473920      0.249387      0.150729
  C      -1.865878      0.150086      0.047669
  C      -2.612572      1.342296      0.129681
  C      -1.992638      2.590128      0.299095
  C      -0.585959      2.657130      0.387067
  Cl      0.192031      4.214830      0.575061
  N       0.486167     -0.778482      0.110006
  C       1.763729     -0.292077      0.335446
  O       2.776584     -0.928067      0.575774
  C       1.676692      1.261446      0.314809
  O       2.319830      1.761701      1.468390
  C       2.274808      1.809201     -1.023682
  C       3.720191      1.386201     -1.301767
  H       2.163002      2.911271     -0.989857
  H       1.676584      1.410390     -1.865202
  O       3.975782      0.490063     -2.101674
  C       4.767940      2.114905     -0.572397
  C       4.740169      3.124010      0.387821
  C       6.098208      3.394035      0.733755
  C       6.861269      2.538644     -0.040957
  O       6.074266      1.767154     -0.827364
  H      -3.709782      1.294919      0.058153
  H       3.833494      3.578768      0.799699
  H       6.468746      4.127926      1.458106
  H       7.938426      2.371192     -0.149360
  H      -2.581054      3.515577      0.362815
  H       0.271033     -1.777312      0.122712
  H       3.132147      1.217916      1.569138
  H      -2.362974     -0.821282     -0.087765
30
Coordinates from ORCA-job input E -1354.697054336175
  C       0.167944      1.499406      0.332108
  C      -0.467491      0.246798      0.149244
  C      -1.857008      0.127988      0.034328
  C      -2.620128      1.309802      0.113593
  C      -2.018607      2.565416      0.291802
  C      -0.613912      2.652729      0.391561
  Cl      0.141755      4.218190      0.593637
  N       0.506574     -0.767781      0.113420
  C       1.777065     -0.266039      0.345400
  O       2.798794     -0.889301      0.580074
  C       1.668730      1.287987      0.333003
  O       2.296406      1.791057      1.492164
  C       2.265501      1.845887     -1.000763
  C       3.702151      1.414405     -1.304369
  H       2.165433      2.948866     -0.955564
  H       1.654297      1.462639     -1.840578
  O       3.939098      0.536777     -2.130651
  C       4.768339      2.109072     -0.569398
  C       4.770752      3.144119      0.363734
  C       6.136745      3.373351      0.711771
  C       6.871776      2.470210     -0.034589
  O       6.061404      1.709501     -0.807481
  H      -3.715957      1.248214      0.033054
  H       3.880342      3.648146      0.753046
  H       6.530422      4.111966      1.418836
  H       7.943804      2.263495     -0.123516
  H      -2.621784      3.481443      0.353458
  H       0.303375     -1.769176      0.122121
  H       3.109885      1.250169      1.600753
  H      -2.339406     -0.849739     -0.107598
30
Coordinates from ORCA-job input E -1354.697115140813
  C       0.169382      1.502311      0.325139
  C      -0.464850      0.246882      0.153815
  C      -1.854403      0.124597      0.045357
  C      -2.619098      1.305672      0.121378
  C      -2.019662      2.563288      0.290153
  C      -0.614551      2.654297      0.383163
  Cl      0.137854      4.222536      0.577068
  N       0.509841     -0.765632      0.121032
  C       1.781824     -0.261927      0.340708
  O       2.806132     -0.883360      0.566007
  C       1.670019      1.293475      0.323681
  O       2.299817      1.801163      1.480358
  C       2.266300      1.851588     -1.008841
  C       3.701019      1.414992     -1.310975
  H       2.173296      2.954962     -0.957303
  H       1.652343      1.479445     -1.851700
  O       3.939324      0.547859     -2.147238
  C       4.764611      2.102609     -0.565313
  C       4.765067      3.134721      0.369586
  C       6.130882      3.364341      0.719556
  C       6.866693      2.463014     -0.026934
  O       6.058311      1.702983     -0.802231
  H      -3.715079      1.242063      0.046021
  H       3.874937      3.638088      0.760061
  H       6.523784      4.100361      1.429568
  H       7.938918      2.255277     -0.110317
  H      -2.624979      3.477857      0.349827
  H       0.307702     -1.767181      0.133204
  H       3.116205      1.264121      1.586115
  H      -2.335337     -0.854801     -0.088344
30
Coordinates from ORCA-job input E -1354.697140135651
  C       0.168813      1.503652      0.317946
  C      -0.463404      0.245857      0.158390
  C      -1.853189      0.119591      0.058948
  C      -2.620148      1.299442      0.131862
  C      -2.022763      2.559298      0.289782
  C      -0.617293      2.654288      0.375112
  Cl      0.131975      4.225916      0.554886
  N       0.512438     -0.764730      0.127719
  C       1.784938     -0.257219      0.331021
  O       2.812535     -0.876411      0.547612
  C       1.669477      1.298617      0.312633
  O       2.298987      1.809375      1.469183
  C       2.266241      1.860143     -1.017981
  C       3.700457      1.421514     -1.319347
  H       2.178651      2.963701     -0.958735
  H       1.650546      1.500145     -1.864654
  O       3.939651      0.559065     -2.159584
  C       4.763798      2.098178     -0.561343
  C       4.764392      3.130437      0.372454
  C       6.129390      3.354962      0.727835
  C       6.864599      2.451301     -0.015897
  O       6.056933      1.694272     -0.793780
  H      -3.716284      1.233384      0.062550
  H       3.876173      3.638143      0.761133
  H       6.522509      4.088738      1.439934
  H       7.936665      2.239609     -0.090422
  H      -2.630476      3.472330      0.346770
  H       0.312069     -1.766608      0.142982
  H       3.120982      1.280354      1.571167
  H      -2.332366     -0.861747     -0.065577
30
Coordinates from ORCA-job input E -1354.697146725270
  C       0.166540      1.505031      0.315732
  C      -0.462901      0.245434      0.159839
  C      -1.852565      0.115663      0.062485
  C      -2.622242      1.293837      0.134094
  C      -2.027603      2.555424      0.288688
  C      -0.622208      2.653905      0.371567
  Cl      0.123127      4.227800      0.547785
  N       0.515445     -0.762871      0.130419
  C       1.786960     -0.251939      0.330067
  O       2.817175     -0.868388      0.542942
  C       1.667565      1.303527      0.309987
  O       2.294109      1.816033      1.467826
  C       2.265718      1.866333     -1.019469
  C       3.699245      1.425019     -1.321060
  H       2.180720      2.969991     -0.957273
  H       1.649315      1.511021     -1.867501
  O       3.937310      0.566884     -2.165883
  C       4.764229      2.096035     -0.559584
  C       4.768319      3.128865      0.373680
  C       6.134042      3.348765      0.729480
  C       6.866152      2.441386     -0.013029
  O       6.056139      1.687086     -0.790952
  H      -3.718385      1.225200      0.066446
  H       3.882379      3.640639      0.762380
  H       6.529764      4.081836      1.440938
  H       7.937540      2.225434     -0.085732
  H      -2.637574      3.467075      0.344815
  H       0.317583     -1.765206      0.144742
  H       3.119961      1.292940      1.568498
  H      -2.329560     -0.867161     -0.059326
30
Coordinates from ORCA-job input E -1354.697150847783
  C       0.164990      1.505679      0.312918
  C      -0.462878      0.244849      0.161417
  C      -1.852630      0.112746      0.067767
  C      -2.624004      1.289859      0.138081
  C      -2.030873      2.552758      0.288251
  C      -0.625462      2.653418      0.367695
  Cl      0.117360      4.229081      0.538758
  N       0.517272     -0.762025      0.132585
  C       1.788462     -0.248442      0.326677
  O       2.820740     -0.862878      0.536398
  C       1.666289      1.306484      0.305931
  O       2.289849      1.819368      1.465801
  C       2.265634      1.870958     -1.022111
  C       3.699119      1.428771     -1.323424
  H       2.181162      2.974540     -0.957684
  H       1.649549      1.518015     -1.871316
  O       3.937124      0.573315     -2.170903
  C       4.764666      2.095803     -0.558886
  C       4.770993      3.129066      0.374175
  C       6.136766      3.343572      0.733203
  C       6.867035      2.433569     -0.008311
  O       6.055735      1.682359     -0.787818
  H      -3.720244      1.219417      0.073206
  H       3.886627      3.644697      0.761637
  H       6.533896      4.075590      1.445004
  H       7.937792      2.213789     -0.079267
  H      -2.642066      3.463680      0.343675
  H       0.321304     -1.764710      0.146042
  H       3.120488      1.303446      1.563602
  H      -2.328395     -0.871176     -0.050506
30
Coordinates from ORCA-job input E -1354.697152471209
  C       0.164945      1.505672      0.311293
  C      -0.463002      0.244583      0.162473
  C      -1.852889      0.112159      0.071261
  C      -2.624365      1.289204      0.140987
  C      -2.031156      2.552435      0.288416
  C      -0.625672      2.653321      0.365704
  Cl      0.116914      4.229445      0.533693
  N       0.517391     -0.762170      0.133642
  C       1.788903     -0.248026      0.324271
  O       2.821950     -0.862170      0.531270
  C       1.666322      1.306707      0.303328
  O       2.288498      1.819208      1.464390
  C       2.265951      1.871818     -1.024022
  C       3.699699      1.430437     -1.325149
  H       2.180504      2.975303     -0.959397
  H       1.650476      1.518184     -1.873410
  O       3.938425      0.576120     -2.173603
  C       4.764659      2.096487     -0.559104
  C       4.770835      3.129158      0.374767
  C       6.136320      3.342159      0.735785
  C       6.866656      2.431307     -0.004752
  O       6.055633      1.681654     -0.786091
  H      -3.720690      1.218439      0.077923
  H       3.886595      3.645934      0.761084
  H       6.533192      4.073864      1.448044
  H       7.937199      2.210190     -0.074786
  H      -2.642270      3.463431      0.343469
  H       0.321833     -1.764935      0.146334
  H       3.122137      1.307687      1.559650
  H      -2.328694     -0.872005     -0.044871
